44
"3", E_el(SPE) = -3536821.66 kJ/mol, G = 862.25 kJ/mol, neg. freq. (1-3) = 0.0, 0.0, 0.0, note : 1-1/
C     1.0299750    0.0105888   -1.0678551 
C     1.5357904   -1.2851171   -0.9610759 
C     2.7960210   -1.6015980   -1.4528295 
H     0.9446595   -2.0506681   -0.4727475 
P    -1.5823549   -0.6621443   -1.2851133 
C     3.5707847   -0.6261375   -2.0624337 
C     3.0749719    0.6681570   -2.1778201 
H     3.1715204   -2.6121128   -1.3541097 
C     1.8190854    0.9844126   -1.6857702 
H     4.5533210   -0.8695844   -2.4457438 
H     1.4434089    1.9942540   -1.7841393 
H     3.6697211    1.4343811   -2.6587850 
C    -0.3402415    0.3310383   -0.6020117 
C    -3.0673403    0.0083438   -0.7173755 
H     2.4121199    1.9985956    1.4622551 
C    -0.6084556    1.4174399    0.2508522 
H    -4.8739643    2.2810874   -0.2846175 
H    -5.1015429    1.0033750    0.8976444 
C    -1.9314480    1.7770560    0.5497450 
H    -0.4396036    4.0519244    0.5491495 
H    -0.3041123    3.5330673    2.2407167 
C    -3.0882132    1.1478295    0.1026318 
H    -4.2537838    2.4743976    1.3467469 
H    -2.0762781    2.6156878    1.2183440 
H    -6.3592960    0.9100444   -1.4348138 
H    -5.3730112    0.8442155   -2.8941489 
H     1.1870164    1.4754138    2.6293522 
H     1.5936613    0.4589597    1.2479213 
Si   -4.6226582   -0.9140466   -1.2844546 
H    -6.6306348   -0.3577169   -2.6215628 
C    -4.3960621    1.7538651    0.5425308 
C    -5.8574879    0.2357551   -2.1284058 
H    -6.2984614   -2.3616299   -0.1555066 
H    -5.7853288   -1.0941274    0.9498104 
C    -5.4349397   -1.7833623    0.1806301 
H    -4.7375809   -2.4774114    0.6533063 
H    -3.4579824   -2.9838809   -2.1154851 
C    -4.1334814   -2.2373160   -2.5351411 
H    -5.0330624   -2.7604126   -2.8682899 
H    -3.6536188   -1.8146446   -3.4192175 
N     0.4399542    2.1629684    0.7776981 
H     1.1295810    4.0281981    1.3421051 
C     1.4539408    1.4872786    1.5652959 
C     0.1793718    3.5001264    1.2554178 
45
"int 1", E_el(SPE) = -3537978.97 kJ/mol, G = 897.46 kJ/mol, neg. freq. (1-3) = -34.31, 0.0, 0.0, note : 2-1/
C     1.0704792    0.0226310   -1.2164456 
C     1.6776134   -1.1853635   -0.8739665 
C     2.9665879   -1.4659802   -1.3032960 
H     1.1418655   -1.9019094   -0.2640408 
P    -1.5956949   -0.6048140   -1.4930536 
C     3.6610653   -0.5462263   -2.0780793 
C     3.0620479    0.6562061   -2.4274324 
H     3.4294163   -2.4049051   -1.0296430 
C     1.7714068    0.9397317   -2.0029907 
H     4.6664530   -0.7675102   -2.4111940 
H     1.2991965    1.8676220   -2.3046133 
H     3.5940766    1.3731597   -3.0383458 
C    -0.3120918    0.3170680   -0.7657542 
C    -3.0262612    0.0018820   -0.7400464 
H     1.6375997    2.1213258    2.6090194 
C    -0.5744087    1.2744489    0.1938820 
H    -4.8182867    2.1807207    0.0962064 
H    -4.9718760    0.7514527    1.1069401 
C    -1.8342851    1.6141341    0.6603389 
H     0.4753622    3.6093961   -0.5306536 
H    -0.2779881    3.8996606    1.0534509 
C    -3.0155240    1.0248753    0.2222290 
H    -4.1028353    2.1568925    1.7001837 
H    -1.9179209    2.3829238    1.4189330 
H    -6.3901371    0.9218317   -1.0802798 
H    -5.4741700    1.1185194   -2.5746278 
H    -0.1286045    2.0821873    2.7997767 
H     0.7535158    0.5929433    2.3856513 
Si   -4.6284291   -0.8656319   -1.3161459 
H    -6.6977107   -0.1401667   -2.4462195 
C    -4.2932110    1.5514061    0.8157757 
C    -5.9118102    0.3831472   -1.8974495 
H    -6.1669491   -2.4868007   -0.2464032 
H    -5.5897717   -1.3525546    0.9663142 
C    -5.2906042   -1.9289859    0.0904606 
H    -4.5416668   -2.6546422    0.4119536 
H    -3.5048581   -2.7795986   -2.5032187 
C    -4.2125171   -1.9921543   -2.7654492 
H    -5.1304616   -2.4792297   -3.1029724 
H    -3.8034236   -1.4427916   -3.6147511 
N     0.5710410    1.9761318    0.8036087 
H     1.4919166    3.8623338    0.9087080 
C     0.7154657    1.6701826    2.2560999 
C     0.5613571    3.4430542    0.5387920 
H     1.4129018    1.6083952    0.3502453 
45
"int 2", E_el(SPE) = -3537952.60 kJ/mol, G = 893.43 kJ/mol, neg. freq. (1-3) = -0.0, -0.0, -0.0, note : 3-1/
C     0.7963424   -0.2400849   -0.7947546 
C     1.7535650   -1.1443430   -0.3414700 
C     2.9379080   -1.3231521   -1.0441693 
H     1.5810050   -1.6950379    0.5751784 
P    -1.4508938   -1.4942145   -0.2086692 
C     3.1734608   -0.6051666   -2.2077536 
C     2.2155553    0.2886969   -2.6718694 
H     3.6771574   -2.0233564   -0.6778199 
C     1.0319472    0.4674250   -1.9736039 
H     4.0973120   -0.7429112   -2.7540554 
H     0.2868604    1.1593054   -2.3479240 
H     2.3876753    0.8439423   -3.5846239 
C    -0.5070235   -0.0941343   -0.0938584 
C    -3.0647450   -0.9833766    0.3725172 
H     1.6755704    2.5980824   -0.4056283 
C    -0.9703247    1.1566448    0.4597650 
H    -4.5696447    1.4236753    2.2935258 
H    -5.2482231   -0.0914853    1.6718170 
C    -2.2684645    1.2452335    1.0590580 
H    -1.7888714    3.6321244    0.2133934 
H    -0.8970118    3.8215274    1.7406128 
C    -3.1892068    0.2477710    1.1282608 
H    -4.1027324   -0.1264587    2.9930351 
H    -2.4818667    2.1367842    1.6316474 
H    -2.9530017    1.4724801   -1.8478240 
H    -2.2026007    0.1826866   -2.7971721 
H     1.5200885    3.0034402    1.3080983 
H     1.6543760    1.3229887    0.8279346 
Si   -4.0514092   -0.7201975   -1.3666215 
H    -3.7782901    0.8174683   -3.2514175 
C    -4.3497189    0.3842039    2.0588920 
C    -3.1479829    0.5520766   -2.3998510 
H    -6.3458624   -0.0795181   -1.8828140 
H    -5.7891043    0.8614729   -0.5048712 
C    -5.7780452   -0.1331013   -0.9509251 
H    -6.3060740   -0.8182475   -0.2873415 
H    -4.4954003   -3.1645807   -1.4980484 
C    -4.0975315   -2.4078966   -2.1758524 
H    -4.7523123   -2.3716649   -3.0489058 
H    -3.1158049   -2.7401384   -2.5146171 
N    -0.2154107    2.2532493    0.4859176 
H    -0.1646620    4.3028746    0.2074212 
C     1.2404252    2.2814366    0.5413818 
C    -0.8107203    3.5678288    0.6823509 
H    -3.6298491   -1.8179824    0.7983442 
48
"int 3", E_el(SPE) = -3738622.31 kJ/mol, G = 957.21 kJ/mol, neg. freq. (1-3) = -0.0, -0.0, -0.0, note : 4-2/
C     0.6790777   -0.2110353   -0.9186823 
C     1.5933430   -1.2517539   -0.7439896 
C     2.6510900   -1.4254714   -1.6260797 
H     1.4936231   -1.9236494    0.1003390 
P    -1.4895355   -1.4800972    0.0945500 
C     2.8204822   -0.5559779   -2.6940274 
C     1.9174205    0.4839721   -2.8780284 
H     3.3492157   -2.2376911   -1.4698237 
C     0.8528547    0.6495299   -2.0061366 
H     3.6483853   -0.6869404   -3.3785024 
H     0.1465838    1.4537291   -2.1721489 
H     2.0361251    1.1647891   -3.7111266 
C    -0.4959301   -0.0697092   -0.0317330 
C    -3.1740503   -0.9417527    0.2924211 
H     1.6754929    2.5238457   -0.3122081 
C    -0.9490505    1.1076136    0.5635141 
H    -5.3608168    0.2081919    1.4863212 
H    -4.4013136   -0.3846658    2.8224321 
C    -2.2536573    1.1793208    1.2243159 
H    -1.8027079    3.5840514    0.4697753 
H    -0.7798370    3.8196153    1.9030405 
C    -3.2342984    0.2626664    1.1693046 
H    -4.5000747    1.3542182    2.5235252 
H    -2.4016809    2.0121863    1.8980120 
H    -2.6451269    1.4851850   -1.8862246 
H    -1.9287223    0.1080502   -2.7262687 
H     1.5814129    2.9232801    1.4070758 
H     1.6383712    1.2386105    0.9052083 
Si   -3.9780755   -0.5811902   -1.4583467 
H    -3.3868241    0.8633200   -3.3552071 
C    -4.4400715    0.3798998    2.0429907 
C    -2.8726912    0.5713300   -2.4370657 
H    -6.1353406    0.3466225   -2.1508710 
H    -5.5839822    1.1819698   -0.7056620 
C    -5.6554234    0.2027021   -1.1803990 
H    -6.3154841   -0.4244811   -0.5803808 
H    -4.7311909   -2.9438064   -1.6836171 
C    -4.1538195   -2.2498816   -2.2964878 
H    -4.6815418   -2.1307012   -3.2446939 
H    -3.1953621   -2.7200879   -2.5211902 
N    -0.2001096    2.2207631    0.6349257 
H    -0.1976123    4.2650614    0.2966155 
C     1.2493277    2.2179358    0.6446085 
C    -0.7858436    3.5332646    0.8487882 
O    -1.0621096   -2.5825794    1.1844378 
H    -0.9215335   -2.2429056    2.0798918 
H    -1.3614446   -2.2323074   -1.0696361 
H    -3.7718536   -1.7603897    0.7057941 
48
"int 4", E_el(SPE) = -3738656.72 kJ/mol, G = 961.23 kJ/mol, neg. freq. (1-3) = -64.71, -0.0, -0.0, note : 5-1/
C     0.8691009   -0.1812842   -0.9993552 
C     1.5163728   -0.3586113    0.2199711 
C     2.8560689   -0.7179997    0.2520547 
H     0.9862716   -0.2208512    1.1554201 
P    -1.5148964   -1.4499935   -1.1119996 
C     3.5542781   -0.9185591   -0.9309037 
C     2.9071320   -0.7565698   -2.1482518 
H     3.3523270   -0.8447508    1.2050628 
C     1.5696026   -0.3902240   -2.1832784 
H     4.5985671   -1.2003684   -0.9038893 
H     1.0734364   -0.2566921   -3.1367636 
H     3.4437344   -0.9124082   -3.0747626 
C    -0.6056418    0.1578785   -1.0622925 
C    -3.0868995   -1.1002775   -0.3056482 
H     0.4826900    2.2266739   -1.7796426 
C    -1.0412532    1.0946174    0.0330744 
H    -4.7125658   -0.7944246    1.8721129 
H    -3.3636372   -1.7565229    2.4285062 
C    -1.9361081    0.6585598    1.0653131 
H    -1.9876668    3.3197424    1.2280522 
H    -0.4957198    2.8949987    2.0979147 
C    -2.8362074   -0.3512603    0.9460219 
H    -3.5193374   -0.0780309    2.9720286 
H    -1.9121758    1.1861293    2.0084668 
H    -3.0678582    1.9110276   -1.8079305 
H    -2.7832552    0.7839609   -3.1495533 
H     0.1015401    3.8307328   -1.1661260 
H     1.3981411    2.8852843   -0.4165932 
Si   -4.3658751   -0.2211018   -1.4798836 
H    -4.2902523    1.6722895   -3.0340125 
C    -3.6533051   -0.7470564    2.1255203 
C    -3.5291903    1.1547577   -2.4457959 
H    -6.4508783    1.0083818   -1.0432502 
H    -5.3396029    1.2508338    0.2967996 
C    -5.7194320    0.5072067   -0.4059159 
H    -6.2531891   -0.2560860    0.1617990 
H    -4.2396397   -1.9971614   -3.2124599 
C    -5.0353011   -1.5458982   -2.6199285 
H    -5.5291944   -2.3394717   -2.0568867 
H    -5.7694109   -1.1212064   -3.3069007 
N    -0.5470181    2.2991815    0.0744482 
H    -0.4920638    4.2033267    0.9161867 
C     0.4153808    2.8293505   -0.8837486 
C    -0.9070729    3.2288045    1.1467145 
H    -0.8146759   -2.2246822   -0.1656551 
H    -0.8257519    0.6181376   -2.0309953 
O    -1.5673478   -2.0192831   -2.4937569 
H    -3.5526644   -2.0632383   -0.0685987 
51
"int 5", E_el(SPE) = -3939242.59 kJ/mol, G = 1022.96 kJ/mol, neg. freq. (1-3) = -0.0, -0.0, -0.0, note : 7-1/
C     0.4640643    0.4419910   -1.6228847 
C     1.2250420   -0.4051107   -0.8225810 
C     2.3089142   -1.0899792   -1.3549675 
H     0.9896287   -0.5406253    0.2258308 
P    -1.9904399   -1.9431221    0.1715859 
C     2.6422827   -0.9425852   -2.6934856 
C     1.8867206   -0.1006851   -3.4982459 
H     2.8924202   -1.7411544   -0.7174833 
C     0.8082114    0.5885762   -2.9642835 
H     3.4873728   -1.4776756   -3.1062690 
H     0.2302971    1.2506187   -3.5985813 
H     2.1389601    0.0253481   -4.5429605 
C    -0.7629931    1.1700159   -1.1262810 
C    -3.3445926   -0.7413848    0.1396161 
H     1.2099835    2.6585147   -0.6849144 
C    -0.8977943    1.4834615    0.3300576 
H    -5.3547915    0.8037788    0.9873864 
H    -4.6078810    0.1843090    2.4417697 
C    -2.1880566    1.4137258    0.9775120 
H    -0.3896277    3.2136400    2.6534262 
H    -0.5899632    1.4632325    2.9078472 
C    -3.2276809    0.5559010    0.8582901 
H    -4.4512544    1.9001286    2.0392830 
H    -2.3569801    2.2343353    1.6655628 
H    -5.2228217    1.6201230   -1.3094693 
H    -3.6250586    1.8189720   -2.0196642 
H     1.5202860    3.4925277    0.8346615 
H     2.1464969    1.8552114    0.5916593 
Si   -4.1481217   -0.6135011   -1.6466291 
H    -4.9654084    1.2629650   -3.0103485 
C    -4.4723708    0.8955608    1.6238458 
C    -4.5149903    1.1885022   -2.0184581 
H    -6.2250194   -1.6427313   -2.5292270 
H    -6.4197084   -1.2217295   -0.8288974 
C    -5.7200177   -1.6268726   -1.5620611 
H    -5.5026173   -2.6589617   -1.2815353 
H    -2.0481251   -0.8092972   -3.0633340 
C    -2.9964261   -1.3367629   -2.9464412 
H    -2.7726750   -2.3880677   -2.7596129 
H    -3.5046029   -1.2833608   -3.9119696 
N     0.0890604    2.0123264    0.9913714 
H     1.0267366    2.1692238    2.8342163 
C     1.3126181    2.5234638    0.3849335 
C     0.0181428    2.2272134    2.4337270 
O    -1.0752343   -1.6186965    1.4584129 
H    -0.8612184    2.1277510   -1.6516864 
O    -2.5290193   -3.3255677    0.0409320 
H    -4.1349938   -1.3016514    0.6563984 
H    -1.0592871   -1.5899674   -0.8126382 
H    -1.5021544   -1.7520156    2.3158502 
H    -1.6540323    0.6201281   -1.4260258 
51
"int 6", E_el(SPE) = -3939208.26 kJ/mol, G = 1020.63 kJ/mol, neg. freq. (1-3) = -87.96, -42.92, 0.0, note : educt-cycle/
C     0.2792969   -0.2203622   -0.3131041 
C     0.1921456   -0.3648372    1.0640661 
C     1.3472930   -0.3214764    1.8348457 
C     2.5804852   -0.1265929    1.2311158 
C     2.6730617    0.0328501   -0.1500287 
C     1.5141538   -0.0207303   -0.9171997 
C     4.0308403    0.2499067   -0.7908228 
C     4.4817125    1.6499107   -0.4810298 
C     5.2078685    1.9024334    0.7531934 
C     6.3390365    1.3000660    1.1733399 
C     7.1661731    0.3786720    0.3536616 
P     7.5642074   -1.1814430    1.2772783 
O     6.0213159   -1.7704882    1.2912706 
N     4.0933498    2.6618477   -1.1946010 
C     3.1932002    2.5703815   -2.3373629 
C     4.4490305    4.0316988   -0.8269955 
C     6.8553936    1.6430397    2.5377513 
Si    8.7886083    1.2554487   -0.2605851 
C     9.1853276    0.5744346   -1.9658183 
C    10.2212214    0.9508737    0.9173332 
C     8.4284467    3.0943077   -0.4074644 
O     8.3059599   -2.0351069    0.0815359 
H     1.5680672    0.0748001   -1.9944683 
H    -0.6135570   -0.2657914   -0.9228710 
H    -0.7701012   -0.5188255    1.5347105 
H     3.4789619   -0.1120445    1.8361565 
H     1.2893209   -0.4471514    2.9081681 
H     2.1902338    2.8658815   -2.0315711 
H     6.8053775    0.7702950    3.1936264 
H     7.9016588    1.9500017    2.5145560 
H     3.7055704    4.4387858   -0.1422723 
H     5.4268512    4.0632970   -0.3569633 
H     6.2772012    2.4383873    3.0026413 
H     4.7837494    2.6757228    1.3851772 
H    10.0198602    1.2968522    1.9318916 
H    10.4865428   -0.1057275    0.9730802 
H     3.5410047    3.2511129   -3.1089258 
H     3.1636375    1.5718868   -2.7529980 
H    11.1016317    1.4892099    0.5595483 
H     9.3117315    3.6133012   -0.7850234 
H     8.1598527    3.5559094    0.5438557 
H     7.6171524    3.2846805   -1.1126503 
H     9.4695179   -0.4776176   -1.9403356 
H     8.3387859    0.6789118   -2.6469640 
H    10.0217929    1.1269820   -2.3983861 
H     4.4691060    4.6406537   -1.7253103 
H     4.7310758   -0.4529622   -0.3482168 
H     6.6579747    0.1123702   -0.5816064 
H     3.9992930    0.0448184   -1.8598111 
H     5.8908221   -2.4110945    2.0009063 
H     7.8730486   -2.0157641   -0.7833794 
51
"TS", E_el(SPE) = -3939174.29 kJ/mol, G = 1019.91 kJ/mol, neg. freq. (1-3) = -142.35, -86.32, -15.21, note : ts-cycle/
C     0.4061097    5.0322048   -0.9489917 
C    -0.5406964    4.9640965   -1.9612726 
C    -1.0290888    3.7271295   -2.3627707 
C    -0.5786134    2.5683494   -1.7475896 
C     0.3596546    2.6274794   -0.7187396 
C     0.8532119    3.8703929   -0.3331622 
C     0.8421332    1.3597611   -0.0526799 
C    -0.2006526    0.8275381    0.9131798 
C    -1.3874381    0.1705023    0.2996038 
C    -1.5337243   -1.1167164   -0.0426800 
C    -0.4657415   -2.1554138    0.1735074 
P     0.6800816   -1.3628525    1.3405959 
O     0.0426434   -1.8453556    2.7565116 
N    -0.4079928    1.4543260    2.0639486 
C    -1.5711937    1.1984989    2.8983127 
C     0.5672009    2.3353674    2.6802575 
C    -2.8480421   -1.5913497   -0.5791229 
Si    0.3799439   -2.8651808   -1.4177431 
C     1.4673068   -4.3116864   -0.8897480 
C     1.3837753   -1.5493657   -2.3042066 
C    -0.9357320   -3.5230671   -2.5886471 
O     2.1460180   -2.0421824    1.2248078 
H     1.6057886    3.9367261    0.4428020 
H     0.8031459    5.9901329   -0.6391373 
H    -0.8895629    5.8687988   -2.4419597 
H    -0.9571306    1.6084955   -2.0791227 
H    -1.7567826    3.6631309   -3.1612962 
H    -2.2082943    0.4328740    2.4697519 
H    -2.7683220   -1.9070952   -1.6183809 
H    -3.1982998   -2.4563468   -0.0130734 
H     0.5988850    2.1374822    3.7501669 
H     1.5658012    2.1752886    2.2875981 
H    -3.6075210   -0.8136245   -0.5241853 
H    -2.2300417    0.8403199    0.1577776 
H     0.7665031   -0.7025611   -2.6107691 
H     2.2147720   -1.1743857   -1.7051983 
H    -1.2517324    0.8706990    3.8875701 
H    -2.1509757    2.1144262    3.0136524 
H     1.8099621   -1.9754056   -3.2149332 
H    -0.4475957   -4.1454104   -3.3419982 
H    -1.4644060   -2.7319087   -3.1208230 
H    -1.6744247   -4.1448320   -2.0811026 
H     2.4856941   -4.0115159   -0.6423745 
H     1.0516737   -4.8542625   -0.0383440 
H     1.5415078   -5.0245548   -1.7130168 
H     0.2911695    3.3800055    2.5343289 
H     1.0123221    0.5939542   -0.8067706 
H    -0.9265165   -3.0413227    0.6330425 
H     1.8011291    1.5249677    0.4347333 
H     0.4090883   -1.3868335    3.5243872 
H     2.1968702   -2.9986080    1.3731659 
51
"int 7", E_el(SPE) = -3939242.51 kJ/mol, G = 1024.97 kJ/mol, neg. freq. (1-3) = -47.38, -0.0, -0.0, note : product-cycle/
C     0.4973329    3.9966830   -0.1714805 
C     0.0193837    5.0683987   -0.9135126 
C    -0.5479108    4.8541168   -2.1618527 
C    -0.6220727    3.5626511   -2.6670479 
C    -0.1422073    2.4955164   -1.9216360 
C     0.4111969    2.6952317   -0.6577790 
C     0.9209142    1.5229569    0.1400409 
C    -0.1748827    0.7895673    0.9462665 
N    -0.6546232    1.4413962    2.1750217 
C     0.3738140    2.1252840    2.9535833 
C    -1.3019867    0.3243650    0.0548970 
C    -1.4203762   -0.9721691   -0.2504075 
C    -2.4897548   -1.5000445   -1.1454197 
C    -0.4185953   -1.9501183    0.3359473 
Si    0.7266605   -2.8551635   -0.9433317 
C    -0.3256803   -4.1504283   -1.8006741 
P     0.3522191   -0.8837601    1.5414437 
O     1.9279936   -0.9584299    1.6417990 
O    -0.3422950   -0.9922027    2.9473921 
C    -1.8726199    2.2370564    2.0652559 
C     2.0976941   -3.7254056    0.0052489 
C     1.4058726   -1.6010335   -2.1586968 
H     0.9535955    4.1863688    0.7919591 
H     0.0974010    6.0722532   -0.5164530 
H    -0.9196863    5.6885425   -2.7421853 
H    -0.1922555    1.4944720   -2.3339686 
H    -1.0474258    3.3851858   -3.6463101 
H    -2.6998697    1.6311159    1.7039174 
H    -2.0807126   -1.8098826   -2.1084596 
H    -2.9725787   -2.3738636   -0.7058985 
H    -0.0123804    2.3036545    3.9558426 
H     1.2686705    1.5106444    3.0548705 
H    -3.2483377   -0.7436171   -1.3373169 
H    -1.9809588    1.0563208   -0.3620458 
H     0.6155589   -0.9979746   -2.6099881 
H     2.1274124   -0.9257962   -1.6962542 
H    -2.1379393    2.5877602    3.0610065 
H    -1.7571139    3.1080124    1.4144868 
H     1.9245293   -2.1133864   -2.9711267 
H     0.3218018   -4.7997768   -2.3937468 
H    -1.0680146   -3.7295313   -2.4776819 
H    -0.8481057   -4.7812915   -1.0797374 
H     2.9509946   -3.0800715    0.2151664 
H     1.7453774   -4.1571983    0.9443055 
H     2.4761371   -4.5536206   -0.5968963 
H     0.6724080    3.0881566    2.5343696 
H     1.3657917    0.8028395   -0.5503006 
H    -0.9425990   -2.7559053    0.8640879 
H     1.7298294    1.8388700    0.7999946 
H    -0.7401136   -0.0612130    3.0611017 
H     2.3396634   -1.7599259    1.9991345 
51
"7-TMS", E_el(SPE) = -3939307.43 kJ/mol, G = 1039.56 kJ/mol, neg. freq. (1-3) = -0.0, 0.0, 0.0, note : 8-1/
C     0.7110912    0.9315607   -1.5040317 
C     0.8972112   -0.2980944   -2.1295524 
C     0.7641588   -0.4195112   -3.5067659 
H     1.1645765   -1.1639837   -1.5382926 
P    -0.9848676   -0.6930937    1.0656394 
C     0.4408632    0.6875892   -4.2771299 
C     0.2421819    1.9169442   -3.6616316 
H     0.9194271   -1.3818072   -3.9772914 
C     0.3770480    2.0356754   -2.2861479 
H     0.3418059    0.5946452   -5.3508757 
H     0.2438096    3.0048742   -1.8202720 
H    -0.0099423    2.7872394   -4.2537162 
C     0.9698801    1.0982078   -0.0297828 
C    -2.5628268   -0.3722467    0.2467677 
H     2.2237339    1.3188905    2.3585558 
C    -0.2733899    1.0465151    0.8752312 
H    -4.6459898    1.5468607    0.4496582 
H    -3.7548493    2.8738493   -0.3053247 
C    -1.4650860    1.8037743    0.3840271 
H    -0.7058807    3.4957279    2.1991299 
H     0.5737258    3.2550771    3.3920692 
C    -2.5882470    1.1252486    0.1204230 
H    -4.2171259    1.4566106   -1.2466841 
H    -1.4123266    2.8748696    0.2319085 
H    -3.6314619    0.3820100   -3.1018028 
H    -1.9040107    0.4621072   -2.7655288 
H     1.3644723    1.0657801    3.8867637 
H     1.3191350   -0.1805467    2.6288347 
Si   -2.9962891   -1.3260634   -1.3916094 
H    -2.5444832   -0.8256560   -3.7710318 
C    -3.8631117    1.7912292   -0.2714888 
C    -2.7460321   -0.2178897   -2.8874723 
H    -5.1781262   -2.2792932   -2.1042188 
H    -5.4392543   -0.8769117   -1.0734062 
C    -4.8178317   -1.7637692   -1.2116760 
H    -4.9882818   -2.4233952   -0.3586825 
H    -0.9511000   -2.7135151   -1.7703509 
C    -2.0019590   -2.9077551   -1.5630319 
H    -2.0583296   -3.5335615   -0.6722976 
H    -2.4097506   -3.4809789   -2.3988129 
N     0.1204966    1.5477437    2.2683923 
H     0.9953688    3.3883959    1.6763690 
C     1.3388569    0.8887740    2.8162330 
C     0.2533629    3.0249817    2.3801651 
O    -0.0776028   -1.7996343    0.6693627 
H     1.6859822    0.3396115    0.2881338 
H     1.4622982    2.0637897    0.1101806 
H    -3.3528582   -0.6954012    0.9358846 
O    -1.4008575   -0.7094466    2.6338991 
H    -1.0118322   -1.4340493    3.1436152 
H    -0.6495517    1.2848712    2.8875457 
